Networks/MV_SemiUrban/SemiUrban_Consumers1.txt
New Line.Consumer1_1 Bus1=1_49.1 Bus2=Consumer1_1.1 Length=0.21 units=km Linecode=Line_25
New Line.Consumer1_2 Bus1=1_64.2 Bus2=Consumer1_2.1 Length=0.21 units=km Linecode=Line_25
New Line.Consumer1_3 Bus1=1_79.3 Bus2=Consumer1_3.1 Length=0.21 units=km Linecode=Line_25
New Line.Consumer1_4 Bus1=1_94.1 Bus2=Consumer1_4.1 Length=0.21 units=km Linecode=Line_25
New Line.Consumer1_5 Bus1=1_109.2 Bus2=Consumer1_5.1 Length=0.21 units=km Linecode=Line_25
New Line.Consumer1_6 Bus1=1_124.3 Bus2=Consumer1_6.1 Length=0.21 units=km Linecode=Line_25
New Line.Consumer1_7 Bus1=1_139.1 Bus2=Consumer1_7.1 Length=0.21 units=km Linecode=Line_25
New Line.Consumer1_8 Bus1=1_154.2 Bus2=Consumer1_8.1 Length=0.21 units=km Linecode=Line_25
New Line.Consumer1_9 Bus1=1_169.3 Bus2=Consumer1_9.1 Length=0.21 units=km Linecode=Line_25
New Line.Consumer1_10 Bus1=1_184.1 Bus2=Consumer1_10.1 Length=0.21 units=km Linecode=Line_25
New Line.Consumer1_11 Bus1=1_199.2 Bus2=Consumer1_11.1 Length=0.21 units=km Linecode=Line_25
New Line.Consumer1_12 Bus1=1_215.3 Bus2=Consumer1_12.1 Length=0.21 units=km Linecode=Line_25

New Line.Consumer1_13 Bus1=1_330.1 Bus2=Consumer1_13.1 Length=0.21 units=km Linecode=Line_25
New Line.Consumer1_14 Bus1=1_334.2 Bus2=Consumer1_14.1 Length=0.21 units=km Linecode=Line_25
New Line.Consumer1_15 Bus1=1_338.3 Bus2=Consumer1_15.1 Length=0.21 units=km Linecode=Line_25
New Line.Consumer1_16 Bus1=1_342.1 Bus2=Consumer1_16.1 Length=0.21 units=km Linecode=Line_25
New Line.Consumer1_17 Bus1=1_346.2 Bus2=Consumer1_17.1 Length=0.21 units=km Linecode=Line_25
New Line.Consumer1_18 Bus1=1_350.3 Bus2=Consumer1_18.1 Length=0.21 units=km Linecode=Line_25
New Line.Consumer1_19 Bus1=1_354.1 Bus2=Consumer1_19.1 Length=0.21 units=km Linecode=Line_25
New Line.Consumer1_20 Bus1=1_358.2 Bus2=Consumer1_20.1 Length=0.21 units=km Linecode=Line_25
New Line.Consumer1_21 Bus1=1_362.3 Bus2=Consumer1_21.1 Length=0.21 units=km Linecode=Line_25
New Line.Consumer1_22 Bus1=1_366.1 Bus2=Consumer1_22.1 Length=0.21 units=km Linecode=Line_25
New Line.Consumer1_23 Bus1=1_370.2 Bus2=Consumer1_23.1 Length=0.21 units=km Linecode=Line_25
New Line.Consumer1_24 Bus1=1_374.3 Bus2=Consumer1_24.1 Length=0.21 units=km Linecode=Line_25
New Line.Consumer1_25 Bus1=1_378.1 Bus2=Consumer1_25.1 Length=0.21 units=km Linecode=Line_25
New Line.Consumer1_26 Bus1=1_382.2 Bus2=Consumer1_26.1 Length=0.21 units=km Linecode=Line_25
New Line.Consumer1_27 Bus1=1_386.3 Bus2=Consumer1_27.1 Length=0.21 units=km Linecode=Line_25
New Line.Consumer1_28 Bus1=1_390.1 Bus2=Consumer1_28.1 Length=0.21 units=km Linecode=Line_25
New Line.Consumer1_29 Bus1=1_394.2 Bus2=Consumer1_29.1 Length=0.21 units=km Linecode=Line_25
New Line.Consumer1_30 Bus1=1_398.3 Bus2=Consumer1_30.1 Length=0.21 units=km Linecode=Line_25
New Line.Consumer1_31 Bus1=1_402.1 Bus2=Consumer1_31.1 Length=0.21 units=km Linecode=Line_25
New Line.Consumer1_32 Bus1=1_406.2 Bus2=Consumer1_32.1 Length=0.21 units=km Linecode=Line_25
New Line.Consumer1_33 Bus1=1_410.3 Bus2=Consumer1_33.1 Length=0.21 units=km Linecode=Line_25
New Line.Consumer1_34 Bus1=1_414.1 Bus2=Consumer1_34.1 Length=0.21 units=km Linecode=Line_25
New Line.Consumer1_35 Bus1=1_418.2 Bus2=Consumer1_35.1 Length=0.21 units=km Linecode=Line_25
New Line.Consumer1_36 Bus1=1_422.3 Bus2=Consumer1_36.1 Length=0.21 units=km Linecode=Line_25
New Line.Consumer1_37 Bus1=1_426.1 Bus2=Consumer1_37.1 Length=0.21 units=km Linecode=Line_25
New Line.Consumer1_38 Bus1=1_430.2 Bus2=Consumer1_38.1 Length=0.21 units=km Linecode=Line_25
New Line.Consumer1_39 Bus1=1_434.3 Bus2=Consumer1_39.1 Length=0.21 units=km Linecode=Line_25 
New Line.Consumer1_40 Bus1=1_438.1 Bus2=Consumer1_40.1 Length=0.21 units=km Linecode=Line_25 
New Line.Consumer1_41 Bus1=1_442.2 Bus2=Consumer1_41.1 Length=0.21 units=km Linecode=Line_25 
New Line.Consumer1_42 Bus1=1_448.3 Bus2=Consumer1_42.1 Length=0.21 units=km Linecode=Line_25 
New Line.Consumer1_43 Bus1=1_452.1 Bus2=Consumer1_43.1 Length=0.21 units=km Linecode=Line_25 
New Line.Consumer1_44 Bus1=1_456.2 Bus2=Consumer1_44.1 Length=0.21 units=km Linecode=Line_25 
New Line.Consumer1_45 Bus1=1_460.3 Bus2=Consumer1_45.1 Length=0.21 units=km Linecode=Line_25 
New Line.Consumer1_46 Bus1=1_464.1 Bus2=Consumer1_46.1 Length=0.21 units=km Linecode=Line_25 
New Line.Consumer1_47 Bus1=1_468.2 Bus2=Consumer1_47.1 Length=0.21 units=km Linecode=Line_25 
New Line.Consumer1_48 Bus1=1_472.3 Bus2=Consumer1_48.1 Length=0.21 units=km Linecode=Line_25 
New Line.Consumer1_49 Bus1=1_476.1 Bus2=Consumer1_49.1 Length=0.21 units=km Linecode=Line_25 
New Line.Consumer1_50 Bus1=1_480.2 Bus2=Consumer1_50.1 Length=0.21 units=km Linecode=Line_25 
New Line.Consumer1_51 Bus1=1_484.3 Bus2=Consumer1_51.1 Length=0.21 units=km Linecode=Line_25 


New Line.Consumer1_52 Bus1=1_609.1 Bus2=Consumer1_52.1 Length=0.21 units=km Linecode=Line_25
New Line.Consumer1_53 Bus1=1_614.2 Bus2=Consumer1_53.1 Length=0.21 units=km Linecode=Line_25 
New Line.Consumer1_54 Bus1=1_619.3 Bus2=Consumer1_54.1 Length=0.21 units=km Linecode=Line_25
New Line.Consumer1_55 Bus1=1_624.1 Bus2=Consumer1_55.1 Length=0.21 units=km Linecode=Line_25 
New Line.Consumer1_56 Bus1=1_629.2 Bus2=Consumer1_56.1 Length=0.21 units=km Linecode=Line_25 
New Line.Consumer1_57 Bus1=1_634.3 Bus2=Consumer1_57.1 Length=0.21 units=km Linecode=Line_25 
New Line.Consumer1_58 Bus1=1_639.1 Bus2=Consumer1_58.1 Length=0.21 units=km Linecode=Line_25 
New Line.Consumer1_59 Bus1=1_644.2 Bus2=Consumer1_59.1 Length=0.21 units=km Linecode=Line_25 
New Line.Consumer1_60 Bus1=1_649.3 Bus2=Consumer1_60.1 Length=0.21 units=km Linecode=Line_25 
New Line.Consumer1_61 Bus1=1_654.1 Bus2=Consumer1_61.1 Length=0.21 units=km Linecode=Line_25 
New Line.Consumer1_62 Bus1=1_659.2 Bus2=Consumer1_62.1 Length=0.21 units=km Linecode=Line_25 
New Line.Consumer1_63 Bus1=1_664.3 Bus2=Consumer1_63.1 Length=0.21 units=km Linecode=Line_25 
New Line.Consumer1_64 Bus1=1_669.1 Bus2=Consumer1_64.1 Length=0.21 units=km Linecode=Line_25 
New Line.Consumer1_65 Bus1=1_674.2 Bus2=Consumer1_65.1 Length=0.21 units=km Linecode=Line_25 
New Line.Consumer1_66 Bus1=1_679.3 Bus2=Consumer1_66.1 Length=0.21 units=km Linecode=Line_25 
New Line.Consumer1_67 Bus1=1_684.1 Bus2=Consumer1_67.1 Length=0.21 units=km Linecode=Line_25 
New Line.Consumer1_68 Bus1=1_689.2 Bus2=Consumer1_68.1 Length=0.21 units=km Linecode=Line_25 
New Line.Consumer1_69 Bus1=1_694.3 Bus2=Consumer1_69.1 Length=0.21 units=km Linecode=Line_25 
New Line.Consumer1_70 Bus1=1_699.1 Bus2=Consumer1_70.1 Length=0.21 units=km Linecode=Line_25 
New Line.Consumer1_71 Bus1=1_704.2 Bus2=Consumer1_71.1 Length=0.21 units=km Linecode=Line_25 
New Line.Consumer1_72 Bus1=1_709.3 Bus2=Consumer1_72.1 Length=0.21 units=km Linecode=Line_25 
New Line.Consumer1_73 Bus1=1_714.1 Bus2=Consumer1_73.1 Length=0.21 units=km Linecode=Line_25 
New Line.Consumer1_74 Bus1=1_719.2 Bus2=Consumer1_74.1 Length=0.21 units=km Linecode=Line_25 
New Line.Consumer1_75 Bus1=1_724.3 Bus2=Consumer1_75.1 Length=0.21 units=km Linecode=Line_25 
New Line.Consumer1_76 Bus1=1_729.1 Bus2=Consumer1_76.1 Length=0.21 units=km Linecode=Line_25 
New Line.Consumer1_77 Bus1=1_734.2 Bus2=Consumer1_77.1 Length=0.21 units=km Linecode=Line_25 
New Line.Consumer1_78 Bus1=1_739.3 Bus2=Consumer1_78.1 Length=0.21 units=km Linecode=Line_25 
New Line.Consumer1_79 Bus1=1_744.1 Bus2=Consumer1_79.1 Length=0.21 units=km Linecode=Line_25 
New Line.Consumer1_80 Bus1=1_749.2 Bus2=Consumer1_80.1 Length=0.21 units=km Linecode=Line_25 
New Line.Consumer1_81 Bus1=1_754.3 Bus2=Consumer1_81.1 Length=0.21 units=km Linecode=Line_25 
New Line.Consumer1_82 Bus1=1_759.1 Bus2=Consumer1_82.1 Length=0.21 units=km Linecode=Line_25  
New Line.Consumer1_83 Bus1=1_764.2 Bus2=Consumer1_83.1 Length=0.21 units=km Linecode=Line_25 
New Line.Consumer1_84 Bus1=1_769.3 Bus2=Consumer1_84.1 Length=0.21 units=km Linecode=Line_25


New Line.Consumer1_85 Bus1=1_797.2 Bus2=Consumer1_85.1 Length=0.21 units=km Linecode=Line_25 
New Line.Consumer1_86 Bus1=1_802.3 Bus2=Consumer1_86.1 Length=0.21 units=km Linecode=Line_25 
New Line.Consumer1_87 Bus1=1_807.1 Bus2=Consumer1_87.1 Length=0.21 units=km Linecode=Line_25 
New Line.Consumer1_88 Bus1=1_812.2 Bus2=Consumer1_88.1 Length=0.21 units=km Linecode=Line_25 
New Line.Consumer1_89 Bus1=1_817.3 Bus2=Consumer1_89.1 Length=0.21 units=km Linecode=Line_25 
New Line.Consumer1_90 Bus1=1_822.1 Bus2=Consumer1_90.1 Length=0.21 units=km Linecode=Line_25 
New Line.Consumer1_91 Bus1=1_827.2 Bus2=Consumer1_91.1 Length=0.21 units=km Linecode=Line_25 
New Line.Consumer1_92 Bus1=1_832.3 Bus2=Consumer1_92.1 Length=0.21 units=km Linecode=Line_25 
New Line.Consumer1_93 Bus1=1_837.1 Bus2=Consumer1_93.1 Length=0.21 units=km Linecode=Line_25 
New Line.Consumer1_94 Bus1=1_842.2 Bus2=Consumer1_94.1 Length=0.21 units=km Linecode=Line_25 
New Line.Consumer1_95 Bus1=1_847.3 Bus2=Consumer1_95.1 Length=0.21 units=km Linecode=Line_25 
New Line.Consumer1_96 Bus1=1_852.1 Bus2=Consumer1_96.1 Length=0.21 units=km Linecode=Line_25 
New Line.Consumer1_97 Bus1=1_857.2 Bus2=Consumer1_97.1 Length=0.21 units=km Linecode=Line_25 
New Line.Consumer1_98 Bus1=1_862.3 Bus2=Consumer1_98.1 Length=0.21 units=km Linecode=Line_25 
New Line.Consumer1_99 Bus1=1_867.1 Bus2=Consumer1_99.1 Length=0.21 units=km Linecode=Line_25 
New Line.Consumer1_100 Bus1=1_872.2 Bus2=Consumer1_100.1 Length=0.21 units=km Linecode=Line_25 
New Line.Consumer1_101 Bus1=1_877.3 Bus2=Consumer1_101.1 Length=0.21 units=km Linecode=Line_25 
New Line.Consumer1_102 Bus1=1_882.1 Bus2=Consumer1_102.1 Length=0.21 units=km Linecode=Line_25  
New Line.Consumer1_103 Bus1=1_887.2 Bus2=Consumer1_103.1 Length=0.21 units=km Linecode=Line_25 
New Line.Consumer1_104 Bus1=1_892.3 Bus2=Consumer1_104.1 Length=0.21 units=km Linecode=Line_25  
New Line.Consumer1_105 Bus1=1_897.2 Bus2=Consumer1_105.1 Length=0.21 units=km Linecode=Line_25 
New Line.Consumer1_106 Bus1=1_902.3 Bus2=Consumer1_106.1 Length=0.21 units=km Linecode=Line_25 
New Line.Consumer1_107 Bus1=1_907.1 Bus2=Consumer1_107.1 Length=0.21 units=km Linecode=Line_25 
New Line.Consumer1_108 Bus1=1_912.2 Bus2=Consumer1_108.1 Length=0.21 units=km Linecode=Line_25 
New Line.Consumer1_109 Bus1=1_917.3 Bus2=Consumer1_109.1 Length=0.21 units=km Linecode=Line_25 
New Line.Consumer1_110 Bus1=1_922.1 Bus2=Consumer1_110.1 Length=0.21 units=km Linecode=Line_25 
New Line.Consumer1_111 Bus1=1_927.2 Bus2=Consumer1_111.1 Length=0.21 units=km Linecode=Line_25 
New Line.Consumer1_112 Bus1=1_932.3 Bus2=Consumer1_112.1 Length=0.21 units=km Linecode=Line_25 
New Line.Consumer1_113 Bus1=1_937.1 Bus2=Consumer1_113.1 Length=0.21 units=km Linecode=Line_25 
New Line.Consumer1_114 Bus1=1_942.2 Bus2=Consumer1_114.1 Length=0.21 units=km Linecode=Line_25 
New Line.Consumer1_115 Bus1=1_947.3 Bus2=Consumer1_115.1 Length=0.21 units=km Linecode=Line_25 
New Line.Consumer1_116 Bus1=1_952.1 Bus2=Consumer1_116.1 Length=0.21 units=km Linecode=Line_25 
New Line.Consumer1_117 Bus1=1_957.2 Bus2=Consumer1_117.1 Length=0.21 units=km Linecode=Line_25 

  
  
